
**** 08/20/18 23:17:16 ******* PSpice Lite (March 2016) ******* ID# 10813 ****

 ** Profile: "SCHEMATIC1-bias"  [ D:\NSU\this\EEE 141L\Lab04\lab07-pspicefiles\schematic1\bias.sim ] 


 ****     CIRCUIT DESCRIPTION


******************************************************************************




** Creating circuit file "bias.cir" 
** WARNING: THIS AUTOMATICALLY GENERATED FILE MAY BE OVERWRITTEN BY SUBSEQUENT SIMULATIONS

*Libraries: 
* Profile Libraries :
* Local Libraries :
* From [PSPICE NETLIST] section of C:\SPB_Data\cdssetup\OrCAD_PSpice\17.2.0\PSpice.ini file:
.lib "nomd.lib" 

*Analysis directives: 
.DC LIN V! 5 10 1 
.OPTIONS ADVCONV
.PROBE64 V(alias(*)) I(alias(*)) W(alias(*)) D(alias(*)) NOISE(alias(*)) 
.INC "..\SCHEMATIC1.net" 



**** INCLUDING SCHEMATIC1.net ****
* source LAB07
R_R1         N14571 N14576  3.3k TC=0,0 
R_R2         0 N14576  1k TC=0,0 
R_R3         N14576 N14580  4.7k TC=0,0 
V_V1         N14580 0 5Vdc
V_V2         N14571 0 10Vdc

**** RESUMING bias.cir ****
.END

ERROR(ORPSIM-15090): DC device V is undefined
